RUNSPEC

TITLE
Oil-Water Two Phase

DIMENS
    4    4    5  /

BLACKOIL
OIL
WATER

FIELD

EQLDIMS
--the number of equilibration regions
--The number of depth nodes in any table of pressure versus depth
--The maximum number of depth nodes in tables in the SOLUTION section
    1  100   10    1   20 /

TABDIMS
--The number of saturation tables entered using SGFN, etc
--The number of PVT tables entered using PVTG, PVTO etc
--The maximum number of saturation nodes in any saturation table
--The maximum number of pressure nodes in any PVT table
    1    1   50   50  /
	
REGDIMS
--The maximum number of fluid-in-place regions
--The number of sets of fluid-in-place regions
--The maximum number of independent reservoir regions
--The maximum number of flux regions for the Flux option
    1    1    0    0   /
	
WELLDIMS
--The maximum number of wells in the model
--The maximum number of connections per well
--The maximum number of groups in the model
--The maximum number of wells in any one group
    2   5    2    2 /
--AQUDIMS
--    4*  2    40 /
NUPCOL
--Set the number of non-linear iterations for which a full hierarchical
--production/injection system solution is carried out
    4 /

START
  01 'JAN' 2012  /

NSTACK
   20 /

--FMTIN
--FMTOUT
   
GRID      ==============================================================

INIT

EQUALS
 'PORO'    0.35      1  4  1  4  1  5  /
 'PERMX'   1100      1  4  1  4  1  5  /
 'PERMY'   1100      1  4  1  4  1  5  /
 'PERMZ'    220      1  4  1  4  1  5  /
/

NTG
  1.     1.     1.     1.
  1.     1.     1.     1.
  1.     1.     1.     1.
  1.     1.     1.     1.
  1.     1.     1.     1.
  1.     1.     1.     1.
  1.     1.     1.     1.
  1.     1.     1.     1.
  1.     1.     1.     1.
  1.     1.     1.     1.
  1.     1.     1.     1.
  1.     1.     1.     1.
  1.     1.     1.     1.
  1.     1.     1.     1.
  1.     1.     1.     1.
  1.     1.     1.     1.
  1.     1.     1.     1.
  1.     1.     1.     1.
  1.     1.     1.     1.
  1.     1.     1.     1. 
  /

COORD
          0.000          0.000        425.000          0.000          0.000        480.000
          5.000          0.000        425.000          5.000          0.000        480.000
         15.000          0.000        425.000         15.000          0.000        480.000
         35.000          0.000        425.000         35.000          0.000        480.000
         65.000          0.000        425.000         65.000          0.000        480.000

          0.000          5.000        425.000          0.000          5.000        480.000
          5.000          5.000        425.000          5.000          5.000        480.000
         15.000          5.000        425.000         15.000          5.000        480.000
         35.000          5.000        425.000         35.000          5.000        480.000
         65.000          5.000        425.000         65.000          5.000        480.000

          0.000         15.000        425.000          0.000         15.000        480.000
          5.000         15.000        425.000          5.000         15.000        480.000
         15.000         15.000        425.000         15.000         15.000        480.000
         35.000         15.000        425.000         35.000         15.000        480.000
         65.000         15.000        425.000         65.000         15.000        480.000

          0.000         35.000        425.000          0.000         35.000        480.000
          5.000         35.000        425.000          5.000         35.000        480.000
         15.000         35.000        425.000         15.000         35.000        480.000
         35.000         35.000        425.000         35.000         35.000        480.000
         65.000         35.000        425.000         65.000         35.000        480.000

          0.000         65.000        425.000          0.000         65.000        480.000
          5.000         65.000        425.000          5.000         65.000        480.000
         15.000         65.000        425.000         15.000         65.000        480.000
         35.000         65.000        425.000         35.000         65.000        480.000
         65.000         65.000        425.000         65.000         65.000        480.000
		 /
ZCORN
 425 425 426 426 427 427 428 428
 425 425 426 426 427 427 428 428
 426 426 427 427 428 428 429 429
 426 426 427 427 428 428 429 429
 427 427 428 428 429 429 430 430
 427 427 428 428 429 429 430 430
 428 428 429 429 430 430 431 431
 428 428 429 429 430 430 431 431
 446 446 447 447 448 448 449 449
 446 446 447 447 448 448 449 449
 447 447 448 448 449 449 450 450
 447 447 448 448 449 449 450 450
 448 448 449 449 450 450 451 451
 448 448 449 449 450 450 451 451
 449 449 450 450 451 451 452 452
 449 449 450 450 451 451 452 452
 446 446 447 447 448 448 449 449
 446 446 447 447 448 448 449 449
 447 447 448 448 449 449 450 450
 447 447 448 448 449 449 450 450
 448 448 449 449 450 450 451 451
 448 448 449 449 450 450 451 451
 449 449 450 450 451 451 452 452
 449 449 450 450 451 451 452 452
 451 451 452 452 453 453 454 454
 451 451 452 452 453 453 454 454
 452 452 453 453 454 454 455 455
 452 452 453 453 454 454 455 455
 453 453 454 454 455 455 456 456
 453 453 454 454 455 455 456 456
 454 454 455 455 456 456 457 457
 454 454 455 455 456 456 457 457
 451 451 452 452 453 453 454 454
 451 451 452 452 453 453 454 454
 452 452 453 453 454 454 455 455
 452 452 453 453 454 454 455 455
 453 453 454 454 455 455 456 456
 453 453 454 454 455 455 456 456
 454 454 455 455 456 456 457 457
 454 454 455 455 456 456 457 457
 454 454 455 455 456 456 457 457
 454 454 455 455 456 456 457 457
 455 455 456 456 457 457 458 458
 455 455 456 456 457 457 458 458
 456 456 457 457 458 458 459 459
 456 456 457 457 458 458 459 459
 457 457 458 458 459 459 460 460
 457 457 458 458 459 459 460 460
 454 454 455 455 456 456 457 457
 454 454 455 455 456 456 457 457
 455 455 456 456 457 457 458 458
 455 455 456 456 457 457 458 458
 456 456 457 457 458 458 459 459
 456 456 457 457 458 458 459 459
 457 457 458 458 459 459 460 460
 457 457 458 458 459 459 460 460
 459 459 460 460 461 461 462 462
 459 459 460 460 461 461 462 462
 460 460 461 461 462 462 463 463
 460 460 461 461 462 462 463 463
 461 461 462 462 463 463 464 464
 461 461 462 462 463 463 464 464
 462 462 463 463 464 464 465 465
 462 462 463 463 464 464 465 465
 459 459 460 460 461 461 462 462
 459 459 460 460 461 461 462 462
 460 460 461 461 462 462 463 463
 460 460 461 461 462 462 463 463
 461 461 462 462 463 463 464 464
 461 461 462 462 463 463 464 464
 462 462 463 463 464 464 465 465
 462 462 463 463 464 464 465 465
 480 480 481 481 482 482 483 483
 480 480 481 481 482 482 483 483
 481 481 482 482 483 483 484 484
 481 481 482 482 483 483 484 484
 482 482 483 483 484 484 485 485
 482 482 483 483 484 484 485 485
 483 483 484 484 485 485 486 486
 483 483 484 484 485 485 486 486
 /

RPTGRID
 'TRANX' 'TRANY' 'TRANZ' 'ALLNNC' 'DEPTH'
/
 
PROPS     ==============================================================

SWOF
  0        0       1       0.0
  1        1       0       0.0
/

PVDO           
  14.7      1.03       1.2     
  1014.7    1.0106     1.2         
  2014.7    0.9916     1.2	   
  3014.7    0.9729     1.200166
  4014.7    0.9546     1.200222
  5014.7    0.9367     1.200277
  6014.7    0.9190     1.200333
  7014.7    0.9017     1.200388
/

PVTW
--Pref     Bw     water compres   vis     viscosibility
  14.7     1.0      3.00E-006     0.31       0.0 
  /

ROCK
 14.7     3.0E-6 /

DENSITY
 49.1   64.79   0.06054 /

SOLUTION   =============================================================

EQUIL
--ref_dep    ref_p     owc    pcowc
   425        4800     500     0.0    2* /
 
--RPTRST
--  'BASIC=2' 'RPORV'
--/

RPTSOL
  'PRES' 'SWAT' /
  

SUMMARY
FPR
FOPR
FOPT
FGPR
FGPT
FWPR
FWPT
FGIR
FGIT
FWIR
FWIT
FWCT
FWPT
WBHP 
/
/

--DEBUG
--1 /

RPTSCHED
/

SCHEDULE   ===========================================================

--RPTSCHED
--  'PRES' 'SWAT' 'WELLS=5' /

NLSOLVE
10 1E-4 300 0.2 1 0.01 0.2 0.001  1
/

TUNING
-- Init     max    min   incre   chop    cut
     .1       1     0.1      5    0.3    0.3 /
--  dPlim  dSlim   dNlim   dVerrlim
     300     0.2    0.3    0.001           /
-- itNRmax  NRtol  dPmax  dSmax  dPmin   dSmin   dVerrmax
       10    1E-4   200    0.2    1      0.01    0.01  /
/

METHOD
IMPEC
/

SOLVER
FIM
/

TMARCH
1 10 0.1 5 0.3 0.3 300 0.2 0.3 0.001
/

WELSPECS
 'INJECTOR' 'G'    4   4    1*  'WAT'  /
 'PRODUCER' 'G'    1   1    1*  'OIL'  /
/

COMPDAT
 'PRODUCER'   1  1  1  2    1*      0.5   3*   /
 'INJECTOR'   4  4  4  5    1*      0.5   3*   /
/

WCONPROD
 'PRODUCER' 'OPEN' 'ORAT'   20  100 /
  /


WCONINJE
 'INJECTOR' 'WAT' 'OPEN' 'RATE'  20  10000  /	
  /

TSTEP
10*100  
/

END
